/*--------------------------------*- C++ -*----------------------------------*\
| =========                 |                                                 |
| \\      /  F ield         | OpenFOAM: The Open Source CFD Toolbox           |
|  \\    /   O peration     | Version:  v2012                                 |
|   \\  /    A nd           | Website:  www.openfoam.com                      |
|    \\/     M anipulation  |                                                 |
\*---------------------------------------------------------------------------*/
FoamFile
{
    version     2.0;
    format      ascii;
    class       polyBoundaryMesh;
    location    "constant/polyMesh";
    object      boundary;
}
// * * * * * * * * * * * * * * * * * * * * * * * * * * * * * * * * * * * * * //

4
(
    movingWall
    {
        type            wall;
        inGroups        1(wall);
        nFaces          25;
        startFace       2425;
    }
    fixedWalls
    {
        type            wall;
        inGroups        1(wall);
        nFaces          75;
        startFace       2450;
    }
    frontAndBack
    {
        type            empty;
        inGroups        1(empty);
        nFaces          2500;
        startFace       2525;
    }
    procBoundary1to0
    {
        type            processor;
        inGroups        1(processor);
        nFaces          50;
        startFace       5025;
        matchTolerance  0.0001;
        transform       unknown;
        myProcNo        1;
        neighbProcNo    0;
    }
)

// ************************************************************************* //
